16
Energy = -491.9592790164
  C    -0.9780742418    -0.1403171208    -0.0196248018 
  C    -0.1958304640     1.1164441326    -0.0031522157 
  N     1.2065902069     0.9272796009     0.0134130125 
  C     1.9260586574    -0.2616362763     0.0078781111 
  N     1.0864172802    -1.3839592603    -0.0180525663 
  C    -0.2870079146    -1.3248331878    -0.0328787976 
  H    -0.7912524666    -2.2954329224    -0.0584225136 
  H     1.5700590015    -2.2804993920    -0.0324669100 
  H     1.7688826039     1.7802172774     0.0285488473 
  O     3.1429408145    -0.3421528919     0.0219864732 
  O    -0.6640831538     2.2477869945    -0.0027203456 
  C    -2.4395911473    -0.0122340062    -0.0266743389 
  C    -3.3553148518    -0.9986676399     0.0529104728 
  H    -2.7737607783     1.0300375307    -0.0984385318 
  H    -3.0876887904    -2.0590762255     0.1437501265 
  H    -4.4255179236    -0.7692968820     0.0322123188 
