16
Energy = -491.9592790164
  C    -0.6312567694    -0.6116792608     0.4517373382   
  C    -0.6982712232     0.8545678115     0.2587241054   
  N     0.3962548232     1.3967420410    -0.4560494276   
  C     1.4966863313     0.7408625206    -0.9946206858   
  N     1.4511663730    -0.6407182161    -0.7612936105   
  C     0.4430319524    -1.2791348051    -0.0785771803   
  H     0.5590052196    -2.3634565661     0.0096011301   
  H     2.2342156078    -1.1662531564    -1.1467131456   
  H     0.3749546693     2.4081326770    -0.5993665523   
  O     2.4044644454     1.2826444907    -1.6028109094   
  O    -1.5948313714     1.5861662482     0.6589004007   
  C    -1.7322716099    -1.2341443176     1.1952359725   
  C    -1.8467768284    -2.5223250167     1.5765678496   
  H    -2.5255830870    -0.5221043516     1.4537033505   
  H    -1.0819125059    -3.2803241703     1.3649980713   
  H    -2.7285591336    -2.8646775389     2.1275929757   
