16
Energy = -491.9592790164
  C    -2.5308176984    -2.4192775089     0.1589107417   
  C    -1.2774525259    -3.1911485937     0.3167597045   
  N    -1.4671564510    -4.5885787566     0.4352617114   
  C    -2.6533552537    -5.3122364451     0.4143237114   
  N    -3.7719592069    -4.4832314713     0.2507545459   
  C    -3.7121470044    -3.1152289758     0.1282631258   
  H    -4.6793164546    -2.6197041185     0.0017037924   
  H    -4.6658178899    -4.9710553753     0.2200008585   
  H    -0.6167672260    -5.1434076530     0.5488732201   
  O    -2.7344857223    -6.5243799065     0.5220744959   
  O    -0.1483747329    -2.7185878515     0.3494265270   
  C    -2.4026745336    -0.9624895330     0.0412894524   
  C    -3.3922314655    -0.0484121131    -0.0150533185   
  H    -1.3579866606    -0.6298726717     0.0074860509   
  H    -4.4562151700    -0.3132536578     0.0312019805   
  H    -3.1621123349     1.0177674480    -0.1082214584   
